CM --- NEC2 Input File created or edited by xnec2c 4.1.1 ---
CM Single MFJ Moxon located 15 ft above sandy ground. Approximating common rover deployment
CE --- End Comments ---
GW     1    21    1.073E+00     0.0000E+00 0.00000E+00    -1.073E+00    0.0000E+00 0.00000E+00  5.55000E-03
GW     2    11    1.073E+00      0.000E+00  0.000000E+00   1.073E+00    0.41275    0.00000E+00  5.55000E-03
GW     3    11     -1.073E+00    0.000E+00  0.00000E+00   -1.073E+00    0.41275    0.00000E+00  5.55000E-03
GW     4    11     1.073E+00     5.08E-01   0.00000E+00   1.073E+00     0.796925   0.00000E+00  5.55000E-03
GW     5    11     -1.073E+00   5.08E-01    0.0000E+00   -1.073E+00     0.796925   0.00000E+00  5.55000E-03
GW     6    21     1.073E+00    0.796925    0.0000E+00   -1.073E+00     0.796925  0.00000E+00  5.55000E-03
GM     0     0     0.00000E+00  0.00000E+00 0.00000E+00   0.00000E+00   0.00E+00   4.572000E+00 0.00000E+00
GE     1     0     0.00000E+00   0.00000E+00 0.00000E+00   0.00000E+00   0.00000E+00   0.00000E+00  0.00000E+00
FR     0     21    0      0     4.90000E+01  1.00000E-01   5.20000E+02   0.00000E+00  0.00000E+00  0.00000E+00
EX     0     6    11      0     1.00000E+00  0.00000E+00   0.00000E+00   0.00000E+00   0.00000E+00  0.00000E+00
LD     5     0     0      0     3.70000E+07  0.00000E+00   0.00000E+00   0.00000E+00   0.00000E+00  0.00000E+00
NH     0     0     0      0     0.00000E+00  0.00000E+00   0.00000E+00   0.00000E+00   0.00000E+00  0.00000E+00
NE     0    20    15      1    -1.40000E+00  -1.40000E+00  5.00000E-02   2.00000E-01   2.00000E-01  0.00000E+00
GN     0     0     0      0     10.00000000 0.002000000   0.00000E+00  0.00000E+00  0.00000E+00  0.00000E+00
RP     0    74    73   1000     0.00000E+00 0.00000E+00   1.2E+00      5.00000E+00  0.00000E+00  0.00000E+00
EN     0     0     0      0     0.00000E+00  0.00000E+00   0.00000E+00   0.00000E+00   0.00000E+00  0.00000E+00
