CM --- NEC2 Input File created or edited by xnec2c 4.1.1 ---
CM Stacked 2M9SSB yagis at 52 ft (15.85 m) and 61.5 ft. Stacking distance 2.89 m
CM Ground plane is sandy, dry, flat coastal soil
CE --- End Comments ---
GW     1    21    1.2700E-02    5.15100E-01 0.00000E+00   1.2700E-02   -5.15100E-01 0.00000E+00  2.35000E-03
GW     2    21    2.50800E-01   4.95300E-01 0.00000E+00   2.50800E-01  -4.95300E-01 0.00000E+00  2.35000E-03
GW     3    21     5.76300E-01  4.69000E-01 0.00000E+00   5.76300E-01  -4.69000E-01 0.00000E+00  2.35000E-03
GW     4    21     8.73100E-01  4.62000E-01 0.00000E+00   8.73100E-01  -4.62000E-01 0.00000E+00  2.35000E-03
GW     5    21     1.41760E+00  4.64300E-01 0.00000E+00   1.41760E+00  -4.64300E-01 0.00000E+00  2.35000E-03
GW     6    21     2.12400E+00  4.58000E-01 0.00000E+00   2.12400E+00  -4.58000E-01 0.00000E+00  2.35000E-03
GW     7    21     2.90200E+00  4.51600E-01 0.00000E+00   2.90200E+00  -4.51600E-01 0.00000E+00  2.35000E-03
GW     8    21     3.76230E+00  4.47500E-01 0.00000E+00   3.76230E+00  -4.47500E-01 0.00000E+00  2.35000E-03
GW     9    21     4.42600E+00  4.50900E-01 0.00000E+00   4.42600E+00  -4.50900E-01 0.00000E+00  2.35000E-03
GM     0     0     0.00000E+00  0.00000E+00 0.00000E+00   0.00000E+00  0.00000E+00  15.85000E+00 0.00000E+00
GM     9     1     0.00000E+00  0.00000E+00  0.00000E+00  0.00000E+00  0.00000E+00  2.89E+00  1.00000E+00
GE     1     0     0.00000E+00  0.00000E+00 0.00000E+00   0.00000E+00  0.00000E+00  0.00000E+00  0.00000E+00
FR     0     16    0      0     1.43600E+02 1.00000E-01   1.4500E+02   0.00000E+00  0.00000E+00  0.00000E+00
EX     0     2    11      0     1.00000E+00 0.00000E+00   0.00000E+00  0.00000E+00  0.00000E+00  0.00000E+00
LD     5     0     0      0     3.70000E+07 0.00000E+00   0.00000E+00  0.00000E+00  0.00000E+00  0.00000E+00
NH     0     0     0      0     0.00000E+00 0.00000E+00   0.00000E+00  0.00000E+00  0.00000E+00  0.00000E+00
NE     0    20    15      1    -1.40000E+00 -1.40000E+00  5.00000E-02  2.00000E-01  2.00000E-01  0.00000E+00
GN     0     0     0      0     10.00000000 0.002000000   0.00000E+00  0.00000E+00  0.00000E+00  0.00000E+00
RP     0    148    73   1000     0.00000E+00 0.00000E+00   0.6E+00      5.00000E+00  0.00000E+00  0.00000E+00
EN     0     0     0      0     0.00000E+00 0.00000E+00   0.00000E+00  0.00000E+00  0.00000E+00  0.00000E+00
