CM --- NEC2 Input File created or edited by xnec2c 4.1.1 ---
CM Stack of 4 DSE3 yagis separated vertically at 10 ft. Perfect ground
CE --- End Comments ---
GW     1    21     0.0508        1.3335      0.00000E+00   0.0508        -1.3335       0.00000E+00  7.1000E-03
GW     2    21     0.7493        1.431925    0.00000E+00   0.7493        -1.431925     0.00000E+00  7.1000E-03
GW     3    21     1.7145        1.4859      0.00000E+00   1.7145        -1.4859       0.00000E+00  7.1000E-03
GM     0     0     0.00000E+00   0.00000E+00 0.00000E+00   0.00000E+00   0.00000E+00   4.572000E+00 0.00000E+00
GM     3     3     0.00000E+00  0.00000E+00  0.00000E+00   0.00000E+00   0.00000E+00   3.048E+00    1.00000E+00
GE     1     0     0.00000E+00   0.00000E+00 0.00000E+00   0.00000E+00   0.00000E+00   0.00000E+00  0.00000E+00
FR     0     10    0      0     4.90000E+01  2.00000E-01   5.10000E+02   0.00000E+00   0.00000E+00  0.00000E+00
EX     0     2    11      0     1.00000E+00  0.00000E+00   0.00000E+00   0.00000E+00   0.00000E+00  0.00000E+00
EX     0     5    11      0     1.00000E+00  0.00000E+00   0.00000E+00   0.00000E+00   0.00000E+00  0.00000E+00
EX     0     8    11      0     1.00000E+00  0.00000E+00   0.00000E+00   0.00000E+00   0.00000E+00  0.00000E+00
EX     0     11    11      0    1.00000E+00  0.00000E+00   0.00000E+00   0.00000E+00   0.00000E+00  0.00000E+00
LD     5     0     0      0     3.70000E+07  0.00000E+00   0.00000E+00   0.00000E+00   0.00000E+00  0.00000E+00
NH     0     0     0      0     0.00000E+00  0.00000E+00   0.00000E+00   0.00000E+00   0.00000E+00  0.00000E+00
NE     0    20    15      1    -1.40000E+00  -1.40000E+00  5.00000E-02   2.00000E-01   2.00000E-01  0.00000E+00
GN     1     0     0      0     0.00000E+00 0.00000E+00   0.00000E+00  0.00000E+00  0.00000E+00  0.00000E+00
RP     0    74    73   1000     0.00000E+00 0.00000E+00   1.2E+00      5.00000E+00  0.00000E+00  0.00000E+00
EN     0     0     0      0     0.00000E+00  0.00000E+00   0.00000E+00   0.00000E+00   0.00000E+00  0.00000E+00
