CM --- NEC2 Input File created or edited by xnec2c 4.1.1 ---
CM Single 2M5WL 17-element yagi. Mounted at 52 ft over perfect ground plane
CE --- End Comments ---
GW     1    21     1.2700E-02   0.5159375   0.00000E+00   1.2700E-02   -0.5159375   0.00000E+00  2.35000E-03
GW     2    21     0.4000500    0.4826      0.00000E+00   0.4000500    -0.4826      0.00000E+00  2.35000E-03
GW     3    21     0.5715       0.47625     0.00000E+00   0.5715       -0.47625     0.00000E+00  2.35000E-03
GW     4    21     0.92075      0.473075    0.00000E+00   0.92075      -0.473075    0.00000E+00  2.35000E-03
GW     5    21     1.3716       0.4690999   0.00000E+00   1.3716       -0.4690999   0.00000E+00  2.35000E-03
GW     6    21     1.8970752    0.4643374   0.00000E+00   1.8970752    -0.4643374   0.00000E+00  2.35000E-03
GW     7    21     2.4780748    0.460375    0.00000E+00   2.4780748    -0.460375    0.00000E+00  2.35000E-03
GW     8    21     3.1067502    0.4579874   0.00000E+00   3.1067502    -0.4579874   0.00000E+00  2.35000E-03
GW     9    21     3.775075     0.454025    0.00000E+00   3.775075     -0.454025    0.00000E+00  2.35000E-03
GW     10    21    4.47675      0.4524375   0.00000E+00   4.47675      -0.4524375   0.00000E+00  2.35000E-03
GW     11    21    5.207        0.4500499   0.00000E+00   5.207        -0.4500499   0.00000E+00  2.35000E-03
GW     12    21    5.965825     0.447675    0.00000E+00   5.965825     -0.447675    0.00000E+00  2.35000E-03
GW     13    21    6.75005      0.4452874   0.00000E+00   6.75005      -0.4452874   0.00000E+00  2.35000E-03
GW     14    21    7.5548998    0.4436999   0.00000E+00   7.5548998    -0.4436999   0.00000E+00  2.35000E-03
GW     15    21    8.3803998    0.441325    0.00000E+00   8.3803998    -0.441325    0.00000E+00  2.35000E-03
GW     16    21    9.2249752    0.434975    0.00000E+00   9.2249752    -0.434975    0.00000E+00  2.35000E-03
GW     17    21    10.0694998   0.434975    0.00000E+00   10.0694998   -0.434975    0.00000E+00  2.35000E-03
GM     0     0     0.00000E+00  0.00000E+00 0.00000E+00   0.00000E+00  0.00000E+00  15.85000E+00 0.00000E+00
GE     1     0     0.00000E+00  0.00000E+00 0.00000E+00   0.00000E+00  0.00000E+00  0.00000E+00  0.00000E+00
FR     0     16    0      0     1.43600E+02 1.00000E-01   1.4500E+02   0.00000E+00  0.00000E+00  0.00000E+00
EX     0     2    11      0     1.00000E+00 0.00000E+00   0.00000E+00  0.00000E+00  0.00000E+00  0.00000E+00
LD     5     0     0      0     3.70000E+07 0.00000E+00   0.00000E+00  0.00000E+00  0.00000E+00  0.00000E+00
NH     0     0     0      0     0.00000E+00 0.00000E+00   0.00000E+00  0.00000E+00  0.00000E+00  0.00000E+00
NE     0    20    15      1    -1.40000E+00 -1.40000E+00  5.00000E-02  2.00000E-01  2.00000E-01  0.00000E+00
GN     1     0     0      0     0.00000E+00 0.00000E+00   0.00000E+00  0.00000E+00  0.00000E+00  0.00000E+00
RP     0    148    73   1000     0.00000E+00 0.00000E+00   0.6E+00      5.00000E+00  0.00000E+00  0.00000E+00
EN     0     0     0      0     0.00000E+00 0.00000E+00   0.00000E+00  0.00000E+00  0.00000E+00  0.00000E+00
