CM --- NEC2 Input File created or edited by xnec2c 4.1.1 ---
CM Single 6M3 yagi. Mounted 25 ft above a perfect ground
CE --- End Comments ---
GW     1    21     0.0127       1.4795E+00   0.00000E+00   0.0127       -1.4795E+00    0.00000E+00  4.7000E-03
GW     2    21     1.0414E+00   1.4224E+00   0.00000E+00   1.0414E+00   -1.4224E+00    0.00000E+00  4.7000E-03
GW     3    21     2.0669E+00   1.35255E+00  0.00000E+00   2.0669E+00   -1.35255E+00   0.00000E+00  4.7000E-03
GM     0     0     0.00000E+00  0.00000E+00  0.00000E+00   0.00000E+00   0.00E+00      7.62000E+00  0.00000E+00
GE     1     0     0.00000E+00  0.00000E+00  0.00000E+00   0.00000E+00   0.00000E+00   0.00000E+00  0.00000E+00
FR     0     10    0      0     4.90000E+01  2.00000E-01   5.10000E+02   0.00000E+00   0.00000E+00  0.00000E+00
EX     0     2    11      0     1.00000E+00  0.00000E+00   0.00000E+00   0.00000E+00   0.00000E+00  0.00000E+00
LD     5     0     0      0     3.70000E+07  0.00000E+00   0.00000E+00   0.00000E+00   0.00000E+00  0.00000E+00
NH     0     0     0      0     0.00000E+00  0.00000E+00   0.00000E+00   0.00000E+00   0.00000E+00  0.00000E+00
NE     0    20    15      1    -1.40000E+00  -1.40000E+00  5.00000E-02   2.00000E-01   2.00000E-01  0.00000E+00
GN     1     0     0      0     0.00000000   0.00000000    0.00000E+00   0.00000E+00   0.00000E+00  0.00000E+00
RP     0    74    73   1000     0.00000E+00  0.00000E+00   1.2E+00       5.00000E+00   0.00000E+00  0.00000E+00
EN     0     0     0      0     0.00000E+00  0.00000E+00   0.00000E+00   0.00000E+00   0.00000E+00  0.00000E+00
