CM --- NEC2 Input File created or edited by xnec2c 4.1.1 ---
CM Single 6M5X yagi located 52 ft above sandy ground.
CE --- End Comments ---
GW     1    21    0.00000000     1.50000E+00  0.00000E+00   0.00000000   -1.50000E+00 0.00000E+00  4.7000E-03
GW     2    21    6.310000E-01   1.4450E+00  0.00000E+00   6.310000E-01  -1.4450E+00  0.00000E+00  4.7000E-03
GW     3    21     1.76000E+00   1.3675E+00  0.00000E+00   1.76000E+00   -1.3675E+00  0.00000E+00  4.7000E-03
GW     4    21     3.73100E+00   1.343E+00   0.00000E+00   3.73100E+00   -1.343E+00    0.00000E+00  4.7000E-03
GW     5    21     5.46000E+00   1.333E+00   0.00000E+00   5.46000E+00   -1.333E+00   0.00000E+00  4.7000E-03
GM     0     0     0.00000E+00  0.00000E+00 0.00000E+00   0.00000E+00  0.00000E+00  15.85000E+00 0.00000E+00
GE     1     0     0.00000E+00   0.00000E+00 0.00000E+00   0.00000E+00   0.00000E+00   0.00000E+00  0.00000E+00
FR     0     10    0      0     4.90000E+01  2.00000E-01   5.10000E+02   0.00000E+00  0.00000E+00  0.00000E+00
EX     0     2    11      0     1.00000E+00  0.00000E+00   0.00000E+00   0.00000E+00   0.00000E+00  0.00000E+00
LD     5     0     0      0     3.70000E+07  0.00000E+00   0.00000E+00   0.00000E+00   0.00000E+00  0.00000E+00
NH     0     0     0      0     0.00000E+00  0.00000E+00   0.00000E+00   0.00000E+00   0.00000E+00  0.00000E+00
NE     0    20    15      1    -1.40000E+00  -1.40000E+00  5.00000E-02   2.00000E-01   2.00000E-01  0.00000E+00
GN     0     0     0      0     10.00000000 0.002000000   0.00000E+00  0.00000E+00  0.00000E+00  0.00000E+00
RP     0    74    73   1000     0.00000E+00 0.00000E+00   1.2E+00      5.00000E+00  0.00000E+00  0.00000E+00
EN     0     0     0      0     0.00000E+00  0.00000E+00   0.00000E+00   0.00000E+00   0.00000E+00  0.00000E+00
