CM --- NEC2 Input File created or edited by xnec2c 4.1.1 ---
CM G0KSC 6-el 50 MHz yagi on 7.3m long boom. Free-space model
CE --- End Comments ---
GW     1    30    0.00000000     1.486500E+00  0.00000E+00   0.00000000   -1.48650E+00 0.00000E+00  5.0000E-03
GW     2    31    3.330000E-01   1.2350E+00  0.00000E+00   3.330000E-01  -1.2350E+00  0.00000E+00  5.0000E-03
GW     3    30     8.84000E-01   1.2350E+00  0.00000E+00   8.84000E-01   -1.2350E+00 0.00000E+00  5.0000E-03
GW     4    30     1.65300E+00   1.378E+00   0.00000E+00   1.65300E+00   -1.378E+00   0.00000E+00  5.0000E-03
GW     5    30     3.38500E+00   1.34E+00   0.00000E+00   3.38500E+00   -1.34E+00   0.00000E+00  5.0000E-03
GW     6    30     5.3200E+00   1.32E+00   0.00000E+00    5.3200E+00   -1.32E+00   0.00000E+00  5.0000E-03
GW     7    30     7.29900E+00   1.281E+00   0.00000E+00   7.29900E+00   -1.281E+00   0.00000E+00  5.0000E-03
GW     8    8     3.330000E-01   1.2350E+00   0.00000E+00   8.84000E-01   1.2350E+00  0.00000E+00  5.0000E-03
GW     9    8     3.33000E-01   -1.2350E+00   0.00000E+00   8.84000E-01   -1.2350E+00  0.00000E+00  5.0000E-03
GE     0     0     0.00000E+00   0.00000E+00 0.00000E+00   0.00000E+00   0.00000E+00   0.00000E+00  0.00000E+00
FR     0     10    0      0     4.90000E+01  2.00000E-01   5.10000E+02   0.00000E+00  0.00000E+00  0.00000E+00
EX     0     2    16      0     1.00000E+00  0.00000E+00   0.00000E+00   0.00000E+00   0.00000E+00  0.00000E+00
LD     5     0     0      0     3.70000E+07  0.00000E+00   0.00000E+00   0.00000E+00   0.00000E+00  0.00000E+00
NH     0     0     0      0     0.00000E+00  0.00000E+00   0.00000E+00   0.00000E+00   0.00000E+00  0.00000E+00
NE     0    20    15      1    -1.40000E+00  -1.40000E+00  5.00000E-02   2.00000E-01   2.00000E-01  0.00000E+00
RP     0    37    73   1000     0.00000E+00  0.00000E+00   5.0E+00       5.00000E+00   0.00000E+00  0.00000E+00
EN     0     0     0      0     0.00000E+00  0.00000E+00   0.00000E+00   0.00000E+00   0.00000E+00  0.00000E+00
