CM --- NEC2 Input File created or edited by xnec2c 4.1.1 ---
CM Single 6M7JHV yagi. No ground plane
CE --- End Comments ---
GW     1    21    1.27E-02     1.489E+00  0.00000E+00      1.27E-02      -1.489E+00 0.00000E+00  4.7000E-03
GW     2    21    1.1684E+00   1.479550E+00  0.00000E+00   1.1684E+00    -1.479550E+00  0.00000E+00  4.7000E-03
GW     3    21     1.6637E+00   1.400175E+00  0.000E+00   1.663700E+00   -1.400175E+00  0.00000E+00  4.7000E-03
GW     4    21     2.86700E+00   1.37637E+00   0.0000E+00   2.86700E+00   -1.37637E+00    0.000E+00  4.7000E-03
GW     5    21     4.91490E+00   1.36047E+00   0.00000E+00   4.91490E+00   -1.36047E+00   0.000E+00  4.7000E-03
GW     6    21     7.150E+00   1.32715E+00   0.00000E+00    7.150E+00     -1.32715E+00   0.000E+00  4.7000E-03
GW     7    21     9.33760E+00   1.31287E+00   0.00000E+00   9.33760E+00   -1.31287E+00    0.00E+00  4.7000E-03
GE     0     0     0.00000E+00   0.00000E+00 0.00000E+00   0.00000E+00   0.00000E+00   0.00000E+00  0.00000E+00
FR     0     10    0      0     4.90000E+01  2.00000E-01   5.10000E+02   0.00000E+00  0.00000E+00  0.00000E+00
EX     0     2    11      0     1.00000E+00  0.00000E+00   0.00000E+00   0.00000E+00   0.00000E+00  0.00000E+00
LD     5     0     0      0     3.70000E+07  0.00000E+00   0.00000E+00   0.00000E+00   0.00000E+00  0.00000E+00
NH     0     0     0      0     0.00000E+00  0.00000E+00   0.00000E+00   0.00000E+00   0.00000E+00  0.00000E+00
NE     0    20    15      1    -1.40000E+00  -1.40000E+00  5.00000E-02   2.00000E-01   2.00000E-01  0.00000E+00
RP     0    37    73   1000     0.00000E+00  0.00000E+00   5.0E+00       5.00000E+00   0.00000E+00  0.00000E+00
EN     0     0     0      0     0.00000E+00  0.00000E+00   0.00000E+00   0.00000E+00   0.00000E+00  0.00000E+00
